
Note: No compatibility mode selected!


Circuit: **.subckt cmos_sky130_tests a b a_bar b_bar

binary raw file "/home/jchin2/.xschem/simulations/CMOS_sky130_tests.raw"
Doing analysis at TEMP = 27.000000 and TNOM = 27.000000

Warning: v5: no DC value, transient time 0 value used
Warning: v4: no DC value, transient time 0 value used
Warning: v3: no DC value, transient time 0 value used
Warning: v2: no DC value, transient time 0 value used
No. of Data Columns : 75  

Initial Transient Solution
--------------------------

Node                                   Voltage
----                                   -------
vdd                                        1.8
a                                            0
b                                            0
nor                                        1.8
x1.net1                                    1.8
nand                                       1.8
x2.net1                              0.0327019
inv                                        1.8
a_bar                                      1.8
b_bar                                      1.8
xor                                6.40936e-07
x4.net3                            1.18615e-07
x4.net1                               0.352048
x4.net2                                    1.8
x4.net4                            3.20468e-07
v5#branch                                    0
v4#branch                                    0
v3#branch                                    0
v2#branch                                    0
v1#branch                         -4.89085e-10


No. of Data Rows : 606

Total analysis time (seconds) = 0.031

Total elapsed time (seconds) = 19.992 

Total DRAM available = 31888.934 MB.
DRAM currently available = 15686.727 MB.
Maximum ngspice program size =  738.980 MB.
Current ngspice program size =  658.559 MB.

Shared ngspice pages =    4.148 MB.
Text (code) pages =    7.465 MB.
Stack = 0 bytes.
Library pages =  662.430 MB.

