
Note: No compatibility mode selected!


Circuit: **.subckt eespfal_nand_sim

Doing analysis at TEMP = 27.000000 and TNOM = 27.000000

Warning: vin4: no DC value, transient time 0 value used
Warning: vin3: no DC value, transient time 0 value used
Warning: vdis0: no DC value, transient time 0 value used
Warning: vin2: no DC value, transient time 0 value used
Warning: vin1: no DC value, transient time 0 value used
Warning: vclk0: no DC value, transient time 0 value used

Initial Transient Solution
--------------------------

Node                                   Voltage
----                                   -------
clk0                                         0
a                                            0
a_bar                                      1.8
dis0                                         0
vdd                                        1.8
b                                            0
b_bar                                      1.8
out_bar                            3.9422e-166
x1.net1                           -1.23944e-19
out                                2.59545e-18
vin4#branch                                  0
vin3#branch                                  0
vdd#branch                                   0
vdis0#branch                                 0
vin2#branch                                  0
vin1#branch                                  0
vclk0#branch                       -1.6154e-29


No. of Data Rows : 20847
ERROR: (internal)  This operation is not defined for display type PrinterOnly.
Can't open viewport for graphics.
ERROR: (internal)  This operation is not defined for display type PrinterOnly.
Can't open viewport for graphics.
ERROR: (internal)  This operation is not defined for display type PrinterOnly.
Can't open viewport for graphics.
ERROR: (internal)  This operation is not defined for display type PrinterOnly.
Can't open viewport for graphics.
binary raw file "/home/jchin2/.xschem/simulations/EESPFAL_NAND_sim.raw"
Doing analysis at TEMP = 27.000000 and TNOM = 27.000000

Warning: vin4: no DC value, transient time 0 value used
Warning: vin3: no DC value, transient time 0 value used
Warning: vdis0: no DC value, transient time 0 value used
Warning: vin2: no DC value, transient time 0 value used
Warning: vin1: no DC value, transient time 0 value used
Warning: vclk0: no DC value, transient time 0 value used

Total analysis time (seconds) = 0.455

Total elapsed time (seconds) = 20.515 

Total DRAM available = 31888.926 MB.
DRAM currently available = 7156.672 MB.
Maximum ngspice program size =  741.625 MB.
Current ngspice program size =  658.875 MB.

Shared ngspice pages =    4.398 MB.
Text (code) pages =    7.465 MB.
Stack = 0 bytes.
Library pages =  662.473 MB.

