
Note: No compatibility mode selected!


Circuit: **.subckt nand vdd a b

binary raw file "/home/jchin2/.xschem/simulations/NAND.raw"
Doing analysis at TEMP = 27.000000 and TNOM = 27.000000

Warning: v3: no DC value, transient time 0 value used
Warning: v2: no DC value, transient time 0 value used
No. of Data Columns : 21  

Initial Transient Solution
--------------------------

Node                                   Voltage
----                                   -------
nand                                       1.8
a                                            0
net1                                 0.0327021
vdd                                        1.8
b                                            0
v3#branch                                    0
v2#branch                                    0
v1#branch                         -1.88553e-12


No. of Data Rows : 11358

Total analysis time (seconds) = 0.143

Total elapsed time (seconds) = 20.122 

Total DRAM available = 31888.934 MB.
DRAM currently available = 15729.809 MB.
Maximum ngspice program size =  738.988 MB.
Current ngspice program size =  658.531 MB.

Shared ngspice pages =    4.117 MB.
Text (code) pages =    7.465 MB.
Stack = 0 bytes.
Library pages =  662.438 MB.

