
Note: No compatibility mode selected!


Circuit: **.subckt nor nor a b

binary raw file "/home/jchin2/.xschem/simulations/NOR.raw"
Doing analysis at TEMP = 27.000000 and TNOM = 27.000000

Warning: v3: no DC value, transient time 0 value used
Warning: v2: no DC value, transient time 0 value used
No. of Data Columns : 21  

Initial Transient Solution
--------------------------

Node                                   Voltage
----                                   -------
nor                                        1.8
b                                            0
net1                                       1.8
vdd                                        1.8
a                                            0
v3#branch                                    0
v2#branch                                    0
v1#branch                         -4.07029e-12


No. of Data Rows : 566

Total analysis time (seconds) = 0.008

Total elapsed time (seconds) = 21.646 

Total DRAM available = 31888.934 MB.
DRAM currently available = 15714.535 MB.
Maximum ngspice program size =  738.949 MB.
Current ngspice program size =  658.512 MB.

Shared ngspice pages =    4.137 MB.
Text (code) pages =    7.465 MB.
Stack = 0 bytes.
Library pages =  662.398 MB.

