
Note: No compatibility mode selected!


Circuit: **.subckt or_vp_vn_sim

binary raw file "/home/jchin2/.xschem/simulations/OR_VP_VN_sim.raw"
Doing analysis at TEMP = 27.000000 and TNOM = 27.000000

Warning: v3: no DC value, transient time 0 value used
Warning: v2: no DC value, transient time 0 value used
No. of Data Columns : 28  

Initial Transient Solution
--------------------------

Node                                   Voltage
----                                   -------
vdd                                        1.8
a                                            0
b                                            0
x1.cmos_inv_0/a                    1.84372e-17
out                                 2.8899e-13
v3#branch                          2.41429e-23
v2#branch                                    0
v1#branch                                    0


No. of Data Rows : 2935

Total analysis time (seconds) = 0.048

Total elapsed time (seconds) = 19.821 

Total DRAM available = 31888.926 MB.
DRAM currently available = 17835.680 MB.
Maximum ngspice program size =  739.004 MB.
Current ngspice program size =  658.566 MB.

Shared ngspice pages =    4.133 MB.
Text (code) pages =    7.465 MB.
Stack = 0 bytes.
Library pages =  662.453 MB.

