
Note: No compatibility mode selected!


Circuit: **.subckt xor a b b_bar a_bar xor a b a_bar b_bar

binary raw file "/home/jchin2/.xschem/simulations/XOR.raw"
Doing analysis at TEMP = 27.000000 and TNOM = 27.000000

Warning: v5: no DC value, transient time 0 value used
Warning: v4: no DC value, transient time 0 value used
Warning: v3: no DC value, transient time 0 value used
Warning: v2: no DC value, transient time 0 value used
No. of Data Columns : 40  

Initial Transient Solution
--------------------------

Node                                   Voltage
----                                   -------
xor                                6.40936e-07
b                                            0
net3                               1.18615e-07
net1                                  0.352048
b_bar                                      1.8
vdd                                        1.8
a                                            0
net2                                       1.8
a_bar                                      1.8
net4                               3.20468e-07
v5#branch                                    0
v4#branch                                    0
v3#branch                                    0
v2#branch                                    0
v1#branch                         -4.81089e-10


No. of Data Rows : 576

Total analysis time (seconds) = 0.015

Total elapsed time (seconds) = 20.595 

Total DRAM available = 31888.934 MB.
DRAM currently available = 15701.785 MB.
Maximum ngspice program size =  738.977 MB.
Current ngspice program size =  658.523 MB.

Shared ngspice pages =    4.117 MB.
Text (code) pages =    7.465 MB.
Stack = 0 bytes.
Library pages =  662.426 MB.

